Circuit: * Z:\home\jerryl\Git\Github_Public\Spice-Simulations\Potential Divider\Potential_Divider.asc

Direct Newton iteration for .op point succeeded.

Date: Tue Sep 29 15:09:53 2020
Total elapsed time: 0.019 seconds.

tnom = 27
temp = 27
method = modified trap
totiter = 65
traniter = 62
tranpoints = 32
accept = 32
rejected = 0
matrix size = 3
fillins = 0
solver = Normal
Matrix Compiler1: 50 bytes object code size
Matrix Compiler2: 175 bytes object code size

