Circuit: * Z:\home\jerryl\Git\Github_Public\Spice-Simulations\LMx58_LM2904\LMx58_LM2904.asc

Direct Newton iteration failed to find .op point.  (Use ".option noopiter" to skip.)
Starting Gmin stepping
Gmin = 10
Gmin = 1.07374
Gmin = 0.115292
Gmin = 0.0123794
Gmin = 0.00132923
Gmin = 0.000142725
vernier = 0.5
vernier = 0.25
Gmin = 5.75385e-005
vernier = 0.125
vernier = 0.0625
vernier = 0.0833333
Gmin = 5.42889e-005
vernier = 0.111111
Gmin = 4.24128e-005
vernier = 0.148148
vernier = 0.197531
Gmin = 2.81187e-005
vernier = 0.263374
vernier = 0.351165
Gmin = 1.47189e-005
vernier = 0.175583
vernier = 0.0877914
vernier = 0.0438957
vernier = 0.0219478
vernier = 0.0109739
vernier = 0.00548696
vernier = 0.00274348
Gmin = 1.2439e-005
vernier = 0.00137174
vernier = 0.00068587
vernier = 0.000514403
Gmin = 0
Gmin stepping failed

Starting source stepping with srcstepmethod=0
Source Step = 3.0303%
Source Step = 33.3333%
Source Step = 63.6364%
Source Step = 88.6364%
Source Step = 89.9976%
Source Step = 90.0243%
Source Step = 90.0539%
Starting source stepping with srcstepmethod=1
Source Step = 3.0303%
Source Step = 33.3333%
Source Step = 63.6364%
Source Step = 88.6364%
vernier = 0.0625
Source stepping failed

Pseudo Transient succeeded in finding the operating point.
Heightened Def Con from 1.10389 to 1.10389
Heightened Def Con from 1.13125 to 1.13125
Heightened Def Con from 1.13679 to 1.13679

Date: Sat Nov 14 00:16:47 2020
Total elapsed time: 5.415 seconds.

tnom = 27
temp = 27
method = modified trap
totiter = 15228
traniter = 2337
tranpoints = 546
accept = 412
rejected = 587
matrix size = 269
fillins = 463
solver = Normal
Thread vector: 67.2/20.8[6] 7.4/3.2[6] 14.6/5.5[6] 2.7/4.1[1]  2592/500
Matrix Compiler1: 39.2 KB object code size  15.8/8.7/[4.8]
Matrix Compiler2: 30.1 KB object code size  5.6/8.3/[5.7]


