Circuit: * Z:\home\jerryl\Git\Github_Public\Spice-Simulations\Current Steering DAC\current steering dac.asc

Direct Newton iteration for .op point succeeded.

Date: Thu Oct 01 00:15:32 2020
Total elapsed time: 0.060 seconds.

tnom = 27
temp = 27
method = modified trap
totiter = 2086
traniter = 2082
tranpoints = 1042
accept = 1042
rejected = 0
matrix size = 25
fillins = 0
solver = Normal
Matrix Compiler1: 628 bytes object code size  0.8/0.8/[0.7]
Matrix Compiler2: off  [0.7]/1.2/0.8


