Circuit: * Z:\home\jerryl\Git\Github_Public\Spice-Simulations\6T SRAM\Writing.asc

Limiting rise time of source v3 to 0.1
Limiting fall time of source v3 to 0.1
WARNING: Node N004 is floating.
WARNING: Node N003 is floating.
WARNING: Node N002 is floating.
WARNING: Node N001 is floating.

Direct Newton iteration for .op point succeeded.
Heightened Def Con from 0.05 to 0.05
Heightened Def Con from 1.15 to 1.15
Heightened Def Con from 1.15 +++++++++++++++++++to 1.15
Heightened Def Con from 1.15 ++++++++to 1.15
Heightened Def Con from 2.05 to 2.05
Heightened Def Con from 3.15 to 3.15
Heightened Def Con from 3.15 +++++++++++++++++++to 3.15
Heightened Def Con from 3.15 ++++++++to 3.15

Date: Fri Oct 02 12:41:04 2020
Total elapsed time: 0.077 seconds.

tnom = 27
temp = 27
method = modified trap
totiter = 7712
traniter = 7688
tranpoints = 1117
accept = 581
rejected = 598
matrix size = 15
fillins = 0
solver = Normal
Matrix Compiler1: 962 bytes object code size  0.5/0.3/[0.2]
Matrix Compiler2:     110 opcodes  0.7/[0.4]/0.5


