Circuit: * Z:\home\jerryl\Git\Github_Public\Spice-Simulations\Current Mirror\Current Mirror Transient Analysis 2\TA2.asc

WARNING: Node N003 is floating.
WARNING: Node N004 is floating.

Direct Newton iteration for .op point succeeded.

Date: Wed Sep 30 18:34:11 2020
Total elapsed time: 0.091 seconds.

tnom = 27
temp = 27
method = modified trap
totiter = 2443
traniter = 2418
tranpoints = 1135
accept = 1115
rejected = 20
matrix size = 9
fillins = 0
solver = Normal
Matrix Compiler1: 350 bytes object code size  0.3/0.3/[0.2]
Matrix Compiler2: off  [0.3]/0.3/0.4


