Circuit: * Z:\home\jerryl\Git\Github_Public\Spice-Simulations\Opamp\Voltage Follower\V_Follower.asc

Direct Newton iteration failed to find .op point.  (Use ".option noopiter" to skip.)
Starting Gmin stepping
Gmin = 10
Gmin = 1.07374
vernier = 0.5
vernier = 0.25
vernier = 0.125
vernier = 0.0625
Gmin = 0.995033
vernier = 0.03125
vernier = 0.015625
vernier = 0.0078125
vernier = 0.00390625
Gmin = 0.999816
vernier = 0.00195313
vernier = 0.000976563
vernier = 0.000488281
Gmin = 0
Gmin stepping failed

Starting source stepping with srcstepmethod=0
Source Step = 3.0303%
Source Step = 33.3333%
Source Step = 63.6364%
Source Step = 93.9394%
Source stepping succeeded in finding the operating point.


Date: Wed Sep 30 23:31:18 2020
Total elapsed time: 0.210 seconds.

tnom = 27
temp = 27
method = modified trap
totiter = 3474
traniter = 1413
tranpoints = 475
accept = 351
rejected = 124
matrix size = 14
fillins = 4
solver = Normal
Matrix Compiler1: 966 bytes object code size  0.5/0.3/[0.3]
Matrix Compiler2:     109 opcodes  0.6/[0.6]/0.8


