Circuit: * C:\users\jerryl\Desktop\LTC3225_bare\LTC3225_bare.asc

WARNING: Less than two connections to node NC_01.  This node is used by S:U1:6.
Direct Newton iteration for .op point succeeded.
Heightened Def Con from 3.33572 to 3.33572
Heightened Def Con from 3.33572 to 3.33572
Heightened Def Con from 3.33573 to 3.33573
Heightened Def Con from 3.33574 to 3.33574
Heightened Def Con from 3.33574 to 3.33574
Heightened Def Con from 3.33574 to 3.33574
Heightened Def Con from 3.33574 to 3.33574

Date: Tue Sep 22 20:18:00 2020
Total elapsed time: 12.032 seconds.

tnom = 27
temp = 27
method = modified trap
totiter = 1419619
traniter = 1419582
tranpoints = 412999
accept = 313244
rejected = 99762
matrix size = 38
fillins = 2
solver = Normal
Thread vector: 4.6/4.1[2] 2.8/2.2[2] 1.0/1.3[1] 0.3/0.8[1]  2592/500
Matrix Compiler1: 1.12 KB object code size  0.6/0.4/[0.4]
Matrix Compiler2: off  [0.4]/0.6/0.6


