Circuit: * Z:\home\jerryl\Git\Github_Public\Spice-Simulations\LTC3225_bare\LTC3225_bare.asc

WARNING: Less than two connections to node NC_01.  This node is used by S:U1:6.
Direct Newton iteration for .op point succeeded.
Heightened Def Con from 3.33559 to 3.33559
Heightened Def Con from 3.3356 to 3.3356
Heightened Def Con from 3.3356 to 3.3356
Heightened Def Con from 3.33561 to 3.33561

Date: Tue Sep 29 12:30:28 2020
Total elapsed time: 12.294 seconds.

tnom = 27
temp = 27
method = modified trap
totiter = 1416895
traniter = 1416858
tranpoints = 411682
accept = 312417
rejected = 99269
matrix size = 38
fillins = 2
solver = Normal
Thread vector: 8.2/7.4[2] 4.8/4.1[2] 1.7/2.2[1] 0.5/1.3[1]  2592/500
Matrix Compiler1: 1.12 KB object code size  1.2/0.7/[0.6]
Matrix Compiler2: off  [0.7]/1.0/1.3


