Circuit: * Z:\home\jerryl\Git\Github_Public\Spice-Simulations\Cascode Current Mirror\Triple Cascode Current Sink\TCCS.asc

WARNING: Node N008 is floating.
WARNING: Node N007 is floating.


Date: Wed Sep 30 17:25:57 2020
Total elapsed time: 0.050 seconds.

tnom = 27
temp = 27
method = trap
totiter = 1025
traniter = 0
tranpoints = 0
accept = 0
rejected = 0
matrix size = 13
fillins = 0
solver = Normal
Matrix Compiler1: 852 bytes object code size  0.6/0.3/[0.3]
Matrix Compiler2: 1.11 KB object code size  0.3/0.4/[0.3]


