Circuit: * Z:\home\jerryl\Git\Github_Public\Spice-Simulations\2 Stage Comparator\2 stage comparator.asc

Direct Newton iteration for .op point succeeded.

Date: Tue Sep 29 15:29:00 2020
Total elapsed time: 0.203 seconds.

tnom = 27
temp = 27
method = modified trap
totiter = 18088
traniter = 18075
tranpoints = 6097
accept = 4935
rejected = 1162
matrix size = 12
fillins = 0
solver = Normal
Matrix Compiler1: 544 bytes object code size  0.5/0.5/[0.3]
Matrix Compiler2: 1022 bytes object code size  0.5/0.6/[0.4]


