Circuit: * Z:\home\jerryl\Desktop\LTC Simulation\LTC3225_TA02\LTC3225_TA02.asc

WARNING: Less than two connections to node NC_01.  This node is used by S:U1:6.
WARNING: Less than two connections to node NC_21.  This node is used by A:U3:4.
WARNING: Less than two connections to node U3:N053.  This node is used by A:U3:37.
WARNING: Less than two connections to node NC_14.  This node is used by S:U3:5.
WARNING: Less than two connections to node NC_06.  This node is used by A:U3:72.
WARNING: Less than two connections to node U3:N126.  This node is used by A:U3:102.
WARNING: Less than two connections to node NC_20.  This node is used by S:U3:12.
Direct Newton iteration failed to find .op point.  (Use ".option noopiter" to skip.)
Starting Gmin stepping
Gmin = 10
Gmin = 1.07374
Gmin = 0.115292
Gmin = 0.0123794
Gmin = 0.00132923
Gmin = 0.000142725
Gmin = 1.5325e-005
Gmin = 1.6455e-006
Gmin = 1.76685e-007
Gmin = 1.89714e-008
Gmin = 2.03704e-009
Gmin = 2.18725e-010
Gmin = 2.34854e-011
Gmin = 2.52173e-012
Gmin = 2.70769e-013
Gmin = 0
Gmin stepping succeeded in finding the operating point.

Ignoring empty pin current: Ix(u3:16)
Ignoring empty pin current: Ix(u3:16)
Heightened Def Con from 3.16503e-005 to 3.16533e-005

Date: Tue Mar 03 17:57:20 2020
Total elapsed time: 41.623 seconds.

tnom = 27
temp = 27
method = modified trap
totiter = 656596
traniter = 656192
tranpoints = 186865
accept = 138003
rejected = 48863
matrix size = 239
fillins = 26
solver = Normal
Thread vector: 57.3/23.8[7] 22.9/9.9[7] 2.5/2.7[1] 1.2/1.4[1]  2592/500
Matrix Compiler1: 7.71 KB object code size  4.0/2.4/[1.4]
Matrix Compiler2: 13.3 KB object code size  3.3/4.5/[2.7]


