Circuit: * Z:\home\jerryl\Git\Github_Public\Spice-Simulations\Zener Diode\Zener_diode.asc

Limiting rise time of source v1 to 0.1
Limiting fall time of source v1 to 0.1
.OP point found by inspection.

Date: Tue Sep 29 13:01:23 2020
Total elapsed time: 0.024 seconds.

tnom = 27
temp = 27
method = modified trap
totiter = 497
traniter = 497
tranpoints = 204
accept = 177
rejected = 27
matrix size = 4
fillins = 0
solver = Normal
Matrix Compiler1: 100 bytes object code size  0.3/0.3/[0.3]
Matrix Compiler2: 248 bytes object code size  0.3/0.3/[0.3]


