Circuit: * C:\users\jerryl\Desktop\simulationsinltspice\Zener Diode\Zener_diode.asc

Limiting rise time of source v1 to 0.1
Limiting fall time of source v1 to 0.1
.OP point found by inspection.

Date: Tue Sep 22 19:54:54 2020
Total elapsed time: 0.016 seconds.

tnom = 27
temp = 27
method = modified trap
totiter = 497
traniter = 497
tranpoints = 204
accept = 177
rejected = 27
matrix size = 4
fillins = 0
solver = Normal
Matrix Compiler1:       6 opcodes  0.3/[0.3]/0.3
Matrix Compiler2: 248 bytes object code size  0.3/0.3/[0.3]


