Circuit: * Z:\home\jerryl\Git\Github_Public\Spice-Simulations\LP5907_3.8V_with_D\LP5907_3.8V.asc

WARNING: Less than two connections to node NC_01.  This node is used by R:U1:_R9.
Direct Newton iteration for .op point succeeded.

Date: Thu Nov 12 11:48:56 2020
Total elapsed time: 0.018 seconds.

tnom = 27
temp = 27
method = modified trap
totiter = 86
traniter = 76
tranpoints = 38
accept = 38
rejected = 0
matrix size = 54
fillins = 21
solver = Normal
Matrix Compiler1: 2.18 KB object code size
Matrix Compiler2: 3.65 KB object code size

