Circuit: * Z:\home\jerryl\Git\Github_Public\Spice-Simulations\Transistor ckts\ip at base \Draft1.asc


Date: Tue Sep 29 12:54:28 2020
Total elapsed time: 0.027 seconds.

tnom = 27
temp = 27
method = trap
totiter = 128
traniter = 0
tranpoints = 0
accept = 0
rejected = 0
matrix size = 7
fillins = 0
solver = Normal
Matrix Compiler1:      12 opcodes  0.4/[0.4]/0.5
Matrix Compiler2: off  [0.4]/0.5/0.5


