Circuit: * Z:\home\jerryl\Desktop\simulationsinltspice\ip at base \Draft1.asc


Date: Tue Sep 22 19:47:14 2020
Total elapsed time: 0.011 seconds.

tnom = 27
temp = 27
method = trap
totiter = 128
traniter = 0
tranpoints = 0
accept = 0
rejected = 0
matrix size = 7
fillins = 0
solver = Normal
Matrix Compiler1: 196 bytes object code size  0.2/0.2/[0.2]
Matrix Compiler2: 453 bytes object code size  0.2/0.2/[0.2]


