Circuit: * Z:\home\jerryl\Git\Github_Public\Spice-Simulations\555_TImer\555_simulation.asc

Direct Newton iteration for .op point succeeded.

Date: Tue Nov 24 12:35:24 2020
Total elapsed time: 0.187 seconds.

tnom = 27
temp = 27
method = modified trap
totiter = 28313
traniter = 28305
tranpoints = 5848
accept = 4532
rejected = 1316
matrix size = 14
fillins = 0
solver = Normal
Matrix Compiler1: 384 bytes object code size  0.3/0.2/[0.2]
Matrix Compiler2: 776 bytes object code size  0.2/0.3/[0.2]


