Circuit: * C:\users\jerryl\Desktop\Work in progress\555_TImer_Simulation\555_simulation.asc

Direct Newton iteration for .op point succeeded.

Date: Tue Sep 08 11:35:57 2020
Total elapsed time: 0.104 seconds.

tnom = 27
temp = 27
method = modified trap
totiter = 28313
traniter = 28305
tranpoints = 5848
accept = 4532
rejected = 1316
matrix size = 14
fillins = 0
solver = Normal
Matrix Compiler1: 384 bytes object code size  0.4/0.3/[0.3]
Matrix Compiler2: 776 bytes object code size  0.3/0.4/[0.3]


