Circuit: * Z:\home\jerryl\Git\Github_Public\Spice-Simulations\Zener_diode & Comparator\Zener_diode & Comparator.asc

Limiting rise time of source v1 to 0.1
Limiting fall time of source v1 to 0.1
Direct Newton iteration failed to find .op point.  (Use ".option noopiter" to skip.)
Starting Gmin stepping
Gmin = 10
Gmin = 1.07374
Gmin = 0.115292
Gmin = 0.0123794
Gmin = 0.00132923
Gmin = 0.000142725
Gmin = 1.5325e-005
Gmin = 1.6455e-006
Gmin = 1.76685e-007
Gmin = 1.89714e-008
vernier = 0.5
Gmin = 3.18287e-009
vernier = 0.25
vernier = 0.125
vernier = 0.0625
vernier = 0.03125
Gmin = 2.66279e-009
vernier = 0.015625
vernier = 0.0078125
vernier = 0.00390625
Gmin = 2.64468e-009
vernier = 0.00195313
vernier = 0.00260417
vernier = 0.00130208
vernier = 0.000651042
Gmin = 2.64037e-009
vernier = 0.000488281
Gmin = 0
Gmin stepping failed

Starting source stepping with srcstepmethod=0
Source Step = 3.0303%
Source Step = 33.3333%
Source Step = 63.6364%
Source Step = 93.9394%
Source stepping succeeded in finding the operating point.

Heightened Def Con from 0.0522289 to 0.0522289
Heightened Def Con from 2.05362 to 2.05362
Heightened Def Con from 2.05373 to 2.05373

Date: Tue Sep 29 13:47:14 2020
Total elapsed time: 0.323 seconds.

tnom = 27
temp = 27
method = modified trap
totiter = 8497
traniter = 6233
tranpoints = 1579
accept = 1161
rejected = 421
matrix size = 24
fillins = 8
solver = Normal
Thread vector: 44.7/23.2[2] 4.3/3.1[2] 3.1/2.7[2] 0.7/1.1[1]  2592/500
Matrix Compiler1: 1.63 KB object code size  0.8/0.4/[0.3]
Matrix Compiler2: off  [0.6]/0.7/0.8


