Circuit: * Z:\home\jerryl\Git\Github_Public\Spice-Simulations\Multiplexer\multiplexer.asc

WARNING: Less than two connections to node OUT.  This node is used by A§O2.
Direct Newton iteration for .op point succeeded.

Date: Tue Sep 29 15:57:17 2020
Total elapsed time: 0.080 seconds.

tnom = 27
temp = 27
method = modified trap
totiter = 2088
traniter = 2082
tranpoints = 1042
accept = 1042
rejected = 0
matrix size = 35
fillins = 0
solver = Normal
Matrix Compiler1: 678 bytes object code size  0.5/0.5/[0.4]
Matrix Compiler2: 1.48 KB object code size  0.5/0.8/[0.4]


