Circuit: * Z:\home\jerryl\Git\Github_Public\Spice-Simulations\Current Mirror\Current Source - 10uA\CurrentSource_10uA.asc

.dc sweep increment has wrong sign -- fixing...

Date: Wed Sep 30 16:50:05 2020
Total elapsed time: 0.074 seconds.

tnom = 27
temp = 27
method = trap
totiter = 209
traniter = 0
tranpoints = 0
accept = 0
rejected = 0
matrix size = 7
fillins = 0
solver = Normal
Matrix Compiler1: 214 bytes object code size  0.5/0.5/[0.4]
Matrix Compiler2: 455 bytes object code size  0.5/0.6/[0.5]


