Circuit: * Z:\home\jerryl\Git\Github_Public\Spice-Simulations\Opamp\NonInverting Amp\Noninverting Amplifier.asc

Direct Newton iteration for .op point succeeded.

Date: Tue Sep 29 16:20:58 2020
Total elapsed time: 0.069 seconds.

tnom = 27
temp = 27
method = modified trap
totiter = 12126
traniter = 12122
tranpoints = 4805
accept = 3407
rejected = 1398
matrix size = 9
fillins = 1
solver = Normal
Matrix Compiler1: 422 bytes object code size  0.5/0.4/[0.3]
Matrix Compiler2: 771 bytes object code size  0.4/0.4/[0.3]


