Circuit: * Z:\home\jerryl\Desktop\simulationsinltspice\ip at collector\Draft1.asc


Date: Tue Sep 22 19:48:57 2020
Total elapsed time: 0.010 seconds.

tnom = 27
temp = 27
method = trap
totiter = 54
traniter = 0
tranpoints = 0
accept = 0
rejected = 0
matrix size = 6
fillins = 0
solver = Normal
Matrix Compiler1: 128 bytes object code size
Matrix Compiler2: 386 bytes object code size

