Circuit: * Z:\home\jerryl\Git\Github_Public\Spice-Simulations\Potential Divider\NMOS\NMOS_Potential Divider.asc

WARNING: Node N001 is floating.

Direct Newton iteration for .op point succeeded.

Date: Fri Oct 02 11:26:14 2020
Total elapsed time: 0.049 seconds.

tnom = 27
temp = 27
method = modified trap
totiter = 2108
traniter = 2082
tranpoints = 1042
accept = 1042
rejected = 0
matrix size = 4
fillins = 0
solver = Normal
Matrix Compiler1:       6 opcodes  0.2/[0.2]/0.2
Matrix Compiler2: off  [0.2]/0.2/0.3


