Circuit: * Z:\home\jerryl\Git\Github_Public\Spice-Simulations\Level Shifter\ip_at_LV_side.asc

Limiting rise time of source v3 to 0.01
Limiting fall time of source v3 to 0.01
Direct Newton iteration for .op point succeeded.

Date: Tue Sep 29 11:49:51 2020
Total elapsed time: 0.073 seconds.

tnom = 27
temp = 27
method = modified trap
totiter = 6702
traniter = 6695
tranpoints = 2147
accept = 1863
rejected = 284
matrix size = 11
fillins = 0
solver = Normal
Matrix Compiler1: 458 bytes object code size  0.5/0.3/[0.3]
Matrix Compiler2: off  [0.3]/0.4/0.4


