Circuit: * Z:\home\jerryl\Git\Github_Public\Spice-Simulations\P-channel_MOSFET_L=5,W=20\p_ch_MOSFET_L=5_W=20.asc

Instance "m1": Length shorter than recommended for a level 1 MOSFET.
.dc sweep increment has wrong sign -- fixing...
.step v1=0
.step v1=-1
.step v1=-2
.step v1=-3
.step v1=-4

Date: Wed Sep 30 14:25:46 2020
Total elapsed time: 0.171 seconds.

tnom = 27
temp = 27
method = trap
totiter = 50017
traniter = 0
tranpoints = 0
accept = 0
rejected = 0
matrix size = 4
fillins = 0
solver = Normal
Matrix Compiler1: off  [0.3]/0.3/0.4
Matrix Compiler2: off  [0.3]/0.4/0.4


