Circuit: * Z:\home\jerryl\Git\Github_Public\Spice-Simulations\RF Simulation\MPS5179 & 2N3866 Cascaded\MPS5179_2N3866_Cascaded.asc

Limiting rise time of source v2 to 1.22911e-009
Limiting fall time of source v2 to 1.22911e-009
Direct Newton iteration for .op point succeeded.

Date: Wed Sep 30 11:25:06 2020
Total elapsed time: 8.252 seconds.

tnom = 27
temp = 27
method = modified trap
totiter = 1026994
traniter = 1026973
tranpoints = 331657
accept = 240527
rejected = 91130
matrix size = 25
fillins = 2
solver = Normal
Matrix Compiler1: 1.74 KB object code size  1.6/0.7/[0.6]
Matrix Compiler2: off  [0.6]/0.9/0.8


