Circuit: * Z:\home\jerryl\Git\Github_Public\Spice-Simulations\RF Simulation\With_Q1_MPS5179_only.asc

Limiting rise time of source v2 to 1.22911e-009
Limiting fall time of source v2 to 1.22911e-009
Direct Newton iteration for .op point succeeded.

Date: Wed Sep 30 11:00:37 2020
Total elapsed time: 0.061 seconds.

tnom = 27
temp = 27
method = modified trap
totiter = 7245
traniter = 7224
tranpoints = 2809
accept = 2392
rejected = 417
matrix size = 13
fillins = 0
solver = Normal
Matrix Compiler1: 656 bytes object code size  0.8/0.4/[0.4]
Matrix Compiler2: off  [0.4]/0.5/0.5


