Circuit: * Z:\home\jerryl\Git\Github_Public\Spice-Simulations\N-channel_MOSFET_L=5,W=20\Draft1.asc

WARNING: Node N003 is floating.

Instance "m1": Length shorter than recommended for a level 1 MOSFET.
.step v2=0
.step v2=1
.step v2=2
.step v2=3
.step v2=4
.step v2=5

Date: Tue Sep 29 11:37:36 2020
Total elapsed time: 0.088 seconds.

tnom = 27
temp = 27
method = trap
totiter = 668
traniter = 0
tranpoints = 0
accept = 0
rejected = 0
matrix size = 5
fillins = 0
solver = Normal
Matrix Compiler1: 204 bytes object code size  0.3/0.3/[0.2]
Matrix Compiler2: 311 bytes object code size  0.2/0.3/[0.2]


