Circuit: * Z:\home\jerryl\Git\Github_Public\Spice-Simulations\CMOS Inverter\CMOS_Inverter.asc

WARNING: Node N001 is floating.

Direct Newton iteration for .op point succeeded.

Date: Wed Sep 30 13:16:03 2020
Total elapsed time: 0.068 seconds.

tnom = 27
temp = 27
method = modified trap
totiter = 2487
traniter = 2463
tranpoints = 1146
accept = 1125
rejected = 21
matrix size = 8
fillins = 0
solver = Normal
Matrix Compiler1: 318 bytes object code size  0.3/0.2/[0.2]
Matrix Compiler2: off  [0.2]/0.3/0.3


