Circuit: * Z:\home\jerryl\Git\Github_Public\Spice-Simulations\Current Mirror\Balanced Wilson Current Mirror \BalancedWilsonCM.asc

WARNING: Node N007 is floating.
WARNING: Node N008 is floating.
WARNING: Node N004 is floating.
WARNING: Node N003 is floating.


Date: Thu Oct 01 13:02:10 2020
Total elapsed time: 0.073 seconds.

tnom = 27
temp = 27
method = trap
totiter = 10026
traniter = 0
tranpoints = 0
accept = 0
rejected = 0
matrix size = 13
fillins = 0
solver = Normal
Matrix Compiler1: 852 bytes object code size  0.4/0.3/[0.2]
Matrix Compiler2: 1.15 KB object code size  0.3/0.3/[0.2]


