Circuit: * Z:\home\jerryl\Git\Github_Public\Spice-Simulations\RF Simulation\MPS5179_cascaded\MPS5179_Cascaded.asc

Limiting rise time of source v2 to 1.22911e-009
Limiting fall time of source v2 to 1.22911e-009
Direct Newton iteration for .op point succeeded.

Date: Wed Sep 30 11:13:24 2020
Total elapsed time: 3.379 seconds.

tnom = 27
temp = 27
method = modified trap
totiter = 570157
traniter = 570136
tranpoints = 232476
accept = 178000
rejected = 54476
matrix size = 19
fillins = 2
solver = Normal
Matrix Compiler1: 1.32 KB object code size  1.3/0.7/[0.6]
Matrix Compiler2: off  [0.6]/0.7/1.1


