Circuit: * LMX24_LM2902 - Rev. A

Fatal Error: No analysis request found.
