Circuit: * Z:\home\jerryl\Git\Github_Public\Spice-Simulations\Current Mirror\Current Sink - 10uA\Current_Sink_10uA.asc


Date: Wed Sep 30 14:36:37 2020
Total elapsed time: 0.087 seconds.

tnom = 27
temp = 27
method = trap
totiter = 10010
traniter = 0
tranpoints = 0
accept = 0
rejected = 0
matrix size = 7
fillins = 0
solver = Normal
Matrix Compiler1: 196 bytes object code size  0.2/0.2/[0.1]
Matrix Compiler2: 461 bytes object code size  0.2/0.2/[0.2]


