Circuit: * Z:\home\jerryl\Git\Github_Public\Spice-Simulations\Current Mirror\Wilson Current Mirror\WilsonCM.asc

WARNING: Node N005 is floating.
WARNING: Node N006 is floating.
WARNING: Node N003 is floating.


Date: Thu Oct 01 12:52:53 2020
Total elapsed time: 0.402 seconds.

tnom = 27
temp = 27
method = trap
totiter = 10024
traniter = 0
tranpoints = 0
accept = 0
rejected = 0
matrix size = 11
fillins = 0
solver = Normal
Matrix Compiler1: 610 bytes object code size  0.5/0.3/[0.3]
Matrix Compiler2: 963 bytes object code size  0.3/0.4/[0.3]


