Circuit: * Z:\home\jerryl\Git\Github_Public\Spice-Simulations\P-channel_MOSFET_L=5,W=10\Draft3.asc

Instance "m1": Length shorter than recommended for a level 1 MOSFET.
Instance "m1": Width narrower than recommended for a level 1 MOSFET.
.dc sweep increment has wrong sign -- fixing...
.step v2=0
.step v2=1
.step v2=2
.step v2=3
.step v2=4
.step v2=5

Date: Wed Sep 16 12:45:49 2020
Total elapsed time: 0.075 seconds.

tnom = 27
temp = 27
method = trap
totiter = 626
traniter = 0
tranpoints = 0
accept = 0
rejected = 0
matrix size = 4
fillins = 0
solver = Normal
Matrix Compiler1: 154 bytes object code size  0.3/0.2/[0.2]
Matrix Compiler2: 244 bytes object code size  0.3/0.3/[0.3]


