Circuit: * Z:\home\jerryl\Git\Github_Public\Spice-Simulations\P-channel_MOSFET_L=5,W=10\p_ch_MOSFET_L=5_W=10.asc

Instance "m1": Length shorter than recommended for a level 1 MOSFET.
Instance "m1": Width narrower than recommended for a level 1 MOSFET.
.dc sweep increment has wrong sign -- fixing...
.step v1=0
.step v1=-1
.step v1=-2
.step v1=-3
.step v1=-4

Date: Wed Sep 30 14:20:41 2020
Total elapsed time: 0.165 seconds.

tnom = 27
temp = 27
method = trap
totiter = 50017
traniter = 0
tranpoints = 0
accept = 0
rejected = 0
matrix size = 4
fillins = 0
solver = Normal
Matrix Compiler1: 118 bytes object code size  0.2/0.2/[0.2]
Matrix Compiler2: 216 bytes object code size  0.2/0.2/[0.2]


