Circuit: * Z:\home\jerryl\Git\Github_Public\Spice-Simulations\Cascode Current Mirror\Double Cascode Current Sink\DCCS.asc


Date: Wed Sep 30 17:19:58 2020
Total elapsed time: 0.064 seconds.

tnom = 27
temp = 27
method = trap
totiter = 1010
traniter = 0
tranpoints = 0
accept = 0
rejected = 0
matrix size = 9
fillins = 0
solver = Normal
Matrix Compiler1: 376 bytes object code size  0.4/0.3/[0.3]
Matrix Compiler2: 681 bytes object code size  0.3/0.4/[0.3]


