Circuit: * Z:\home\jerryl\Git\Github_Public\Spice-Simulations\Opamp\Inverter\Inverter.asc

Direct Newton iteration for .op point succeeded.

Date: Tue Sep 29 16:12:47 2020
Total elapsed time: 0.067 seconds.

tnom = 27
temp = 27
method = modified trap
totiter = 11309
traniter = 11305
tranpoints = 4727
accept = 3366
rejected = 1361
matrix size = 9
fillins = 1
solver = Normal
Matrix Compiler1: 404 bytes object code size  0.5/0.4/[0.3]
Matrix Compiler2: 717 bytes object code size  0.4/0.4/[0.3]


