Circuit: * Z:\home\jerryl\Git\Github_Public\Spice-Simulations\Current Mirror\Current Sinks Cascaded\Cascaded.asc

WARNING: Node N005 is floating.
WARNING: Node N003 is floating.
WARNING: Node N004 is floating.


Date: Wed Sep 30 17:06:00 2020
Total elapsed time: 0.055 seconds.

tnom = 27
temp = 27
method = trap
totiter = 1026
traniter = 0
tranpoints = 0
accept = 0
rejected = 0
matrix size = 10
fillins = 0
solver = Normal
Matrix Compiler1: 454 bytes object code size  0.4/0.3/[0.3]
Matrix Compiler2: 844 bytes object code size  0.4/0.4/[0.3]


